15311932
  -OEChem-08182108313D

 13 12  0     0  0  0  0  0  0999 V2000
    1.5467    0.8509   -1.8915 O   0  5  0  0  0  0  0  0  0  0  0  0
    0.2944   -2.3434   -0.1035 O   0  5  0  0  0  0  0  0  0  0  0  0
   -0.8009    2.0241    0.7426 O   0  5  0  0  0  0  0  0  0  0  0  0
    2.4874   -0.3642   -0.3220 O   0  0  0  0  0  0  0  0  0  0  0  0
   -0.0768   -1.3029    1.7931 O   0  0  0  0  0  0  0  0  0  0  0  0
    0.9761    1.1762    1.7124 O   0  0  0  0  0  0  0  0  0  0  0  0
    1.5056    0.1755   -0.8540 N   0  3  0  0  0  0  0  0  0  0  0  0
    0.1440   -1.3161    0.5739 N   0  3  0  0  0  0  0  0  0  0  0  0
    0.1019    1.1789    0.8350 N   0  3  0  0  0  0  0  0  0  0  0  0
   -0.9663    0.0740   -1.1725 N   0  0  0  0  0  0  0  0  0  0  0  0
   -2.1374   -0.0371   -0.7599 N   0  3  0  0  0  0  0  0  0  0  0  0
   -3.2062   -0.1395   -0.3750 N   0  5  0  0  0  0  0  0  0  0  0  0
    0.1316    0.0237   -0.1787 C   0  0  0  0  0  0  0  0  0  0  0  0
  1  7  1  0  0  0  0
  2  8  1  0  0  0  0
  3  9  1  0  0  0  0
  4  7  2  0  0  0  0
  5  8  2  0  0  0  0
  6  9  2  0  0  0  0
  7 13  1  0  0  0  0
  8 13  1  0  0  0  0
  9 13  1  0  0  0  0
 10 11  2  0  0  0  0
 10 13  1  0  0  0  0
 11 12  2  0  0  0  0
M  CHG  8   1  -1   2  -1   3  -1   7   1   8   1   9   1  11   1  12  -1
M  END
> <PUBCHEM_COMPOUND_CID>
15311932

> <PUBCHEM_CONFORMER_RMSD>
0.6

> <PUBCHEM_CONFORMER_DIVERSEORDER>
1
2
5
6
7
3
8
4

> <PUBCHEM_MMFF94_PARTIAL_CHARGES>
13
1 -0.52
10 -0.56
11 0.69
12 -0.37
13 0.97
2 -0.52
3 -0.52
4 -0.52
5 -0.52
6 -0.52
7 0.8
8 0.8
9 0.8

> <PUBCHEM_EFFECTIVE_ROTOR_COUNT>
4

> <PUBCHEM_PHARMACOPHORE_FEATURES>
9
1 1 acceptor
1 1 anion
1 2 acceptor
1 2 anion
1 3 acceptor
1 3 anion
1 4 acceptor
1 5 acceptor
1 6 acceptor

> <PUBCHEM_HEAVY_ATOM_COUNT>
13

> <PUBCHEM_ATOM_DEF_STEREO_COUNT>
0

> <PUBCHEM_ATOM_UDEF_STEREO_COUNT>
0

> <PUBCHEM_BOND_DEF_STEREO_COUNT>
0

> <PUBCHEM_BOND_UDEF_STEREO_COUNT>
1

> <PUBCHEM_ISOTOPIC_ATOM_COUNT>
0

> <PUBCHEM_COMPONENT_COUNT>
1

> <PUBCHEM_CACTVS_TAUTO_COUNT>
1

> <PUBCHEM_CONFORMER_ID>
00E9A43C00000001

> <PUBCHEM_MMFF94_ENERGY>
26.5737

> <PUBCHEM_FEATURE_SELFOVERLAP>
45.93

> <PUBCHEM_SHAPE_FINGERPRINT>
12423570 1 9394143711915032050
13024252 1 13843098419071014852
137420 1 12274991728795876040
16945 1 18337686225501311399
21930827 45 17977376458410588615
5084963 1 18113333098330553143
68250623 7 17767703666880947527

> <PUBCHEM_SHAPE_MULTIPOLES>
202.43
2.66
1.74
1.57
1.62
0.38
0.18
-0.06
-1.07
-0.12
0.64
-0.48
-0.29
-0.11

> <PUBCHEM_SHAPE_SELFOVERLAP>
398.185

> <PUBCHEM_SHAPE_VOLUME>
114.9

> <PUBCHEM_COORDINATE_TYPE>
2
5
10

$$$$
