137049
  -OEChem-08182111013D

 16 16  0     0  0  0  0  0  0999 V2000
    3.2276    1.4785    0.0313 O   0  5  0  0  0  0  0  0  0  0  0  0
    3.6387   -0.6545   -0.2860 O   0  0  0  0  0  0  0  0  0  0  0  0
    2.8387    0.2912   -0.0855 N   0  3  0  0  0  0  0  0  0  0  0  0
   -2.5936   -0.8131    0.2992 N   0  5  0  0  0  0  0  0  0  0  0  0
   -3.4771    0.2609   -0.1443 N   0  3  0  0  0  0  0  0  0  0  0  0
   -4.1554    1.0469   -0.4701 N   0  0  0  0  0  0  0  0  0  0  0  0
    1.4505    0.0090    0.0126 C   0  0  0  0  0  0  0  0  0  0  0  0
    0.5422    1.0440    0.2357 C   0  0  0  0  0  0  0  0  0  0  0  0
    0.9950   -1.3034   -0.1139 C   0  0  0  0  0  0  0  0  0  0  0  0
   -1.2767   -0.5456    0.2059 C   0  0  0  0  0  0  0  0  0  0  0  0
   -0.8213    0.7667    0.3324 C   0  0  0  0  0  0  0  0  0  0  0  0
   -0.3687   -1.5806   -0.0173 C   0  0  0  0  0  0  0  0  0  0  0  0
    0.8619    2.0774    0.3436 H   0  0  0  0  0  0  0  0  0  0  0  0
    1.6734   -2.1347   -0.2882 H   0  0  0  0  0  0  0  0  0  0  0  0
   -1.4917    1.6006    0.5266 H   0  0  0  0  0  0  0  0  0  0  0  0
   -0.7056   -2.6101   -0.1186 H   0  0  0  0  0  0  0  0  0  0  0  0
  1  3  1  0  0  0  0
  2  3  2  0  0  0  0
  3  7  1  0  0  0  0
  4  5  1  0  0  0  0
  4 10  1  0  0  0  0
  5  6  3  0  0  0  0
  7  8  2  0  0  0  0
  7  9  1  0  0  0  0
  8 11  1  0  0  0  0
  8 13  1  0  0  0  0
  9 12  2  0  0  0  0
  9 14  1  0  0  0  0
 10 11  2  0  0  0  0
 10 12  1  0  0  0  0
 11 15  1  0  0  0  0
 12 16  1  0  0  0  0
M  CHG  4   1  -1   3   1   4  -1   5   1
M  END
> <PUBCHEM_COMPOUND_CID>
137049

> <PUBCHEM_CONFORMER_RMSD>
0.6

> <PUBCHEM_CONFORMER_DIVERSEORDER>
1

> <PUBCHEM_MMFF94_PARTIAL_CHARGES>
16
1 -0.52
10 -0.25
11 -0.15
12 -0.15
13 0.15
14 0.15
15 0.15
16 0.15
2 -0.52
3 0.91
4 -0.36
5 1.1
6 -0.49
7 0.13
8 -0.15
9 -0.15

> <PUBCHEM_EFFECTIVE_ROTOR_COUNT>
2

> <PUBCHEM_PHARMACOPHORE_FEATURES>
4
1 1 acceptor
1 1 anion
1 2 acceptor
6 7 8 9 10 11 12 rings

> <PUBCHEM_HEAVY_ATOM_COUNT>
12

> <PUBCHEM_ATOM_DEF_STEREO_COUNT>
0

> <PUBCHEM_ATOM_UDEF_STEREO_COUNT>
0

> <PUBCHEM_BOND_DEF_STEREO_COUNT>
0

> <PUBCHEM_BOND_UDEF_STEREO_COUNT>
0

> <PUBCHEM_ISOTOPIC_ATOM_COUNT>
0

> <PUBCHEM_COMPONENT_COUNT>
1

> <PUBCHEM_CACTVS_TAUTO_COUNT>
1

> <PUBCHEM_CONFORMER_ID>
0002175900000001

> <PUBCHEM_MMFF94_ENERGY>
34.5676

> <PUBCHEM_FEATURE_SELFOVERLAP>
20.379

> <PUBCHEM_SHAPE_FINGERPRINT>
10219947 1 18410578391793230073
11062470 55 18260548917939639493
11401426 45 18201148897439334354
11471102 20 18412542093822269860
11543360 7 15410609341231514721
13380535 76 18411419483992647443
14325111 11 18410857702101135842
14911166 2 18341619196106012262
14993402 34 16917065572855551221
16945 1 18130801056841230242
18186145 218 18272664462272733480
19026448 5 16298387997693019586
193761 8 17691128136651569354
20201158 50 18341897359362406535
20645476 183 17896619451465634910
20645477 70 18272937085332728302
23235685 24 18410851074982383347
23402539 116 18201991132141821980
23402655 69 18269824343057066869
23559900 14 18272654571901859144
2748010 2 18126288785664255138
528886 8 18411976966468226531

> <PUBCHEM_SHAPE_MULTIPOLES>
215.29
5.94
1.47
0.62
1.88
0.14
0.01
-1.81
-0.92
-0.21
-0.01
0.09
-0.01
0.27

> <PUBCHEM_SHAPE_SELFOVERLAP>
450.031

> <PUBCHEM_SHAPE_VOLUME>
122.1

> <PUBCHEM_COORDINATE_TYPE>
2
5
10

$$$$
