164756
  -OEChem-08182112223D

 17 16  0     0  0  0  0  0  0999 V2000
    0.1139    0.0117    0.8677 O   0  0  0  0  0  0  0  0  0  0  0  0
    1.7831    1.1330   -0.0460 O   0  5  0  0  0  0  0  0  0  0  0  0
    1.8763   -1.0947   -0.0500 O   0  0  0  0  0  0  0  0  0  0  0  0
    1.3668    0.0003    0.1996 N   0  3  0  0  0  0  0  0  0  0  0  0
   -1.0018   -0.0077   -0.0235 C   0  0  0  0  0  0  0  0  0  0  0  0
   -0.9277   -1.2793   -0.8676 C   0  0  0  0  0  0  0  0  0  0  0  0
   -2.2702   -0.0005    0.8270 C   0  0  0  0  0  0  0  0  0  0  0  0
   -0.9404    1.2373   -0.9072 C   0  0  0  0  0  0  0  0  0  0  0  0
   -0.7664   -2.1632   -0.2399 H   0  0  0  0  0  0  0  0  0  0  0  0
   -1.8584   -1.4275   -1.4276 H   0  0  0  0  0  0  0  0  0  0  0  0
   -0.1220   -1.2516   -1.6088 H   0  0  0  0  0  0  0  0  0  0  0  0
   -2.3029    0.8874    1.4689 H   0  0  0  0  0  0  0  0  0  0  0  0
   -2.2940   -0.8676    1.4969 H   0  0  0  0  0  0  0  0  0  0  0  0
   -3.1742   -0.0149    0.2096 H   0  0  0  0  0  0  0  0  0  0  0  0
   -0.1386    1.1926   -1.6520 H   0  0  0  0  0  0  0  0  0  0  0  0
   -1.8744    1.3589   -1.4683 H   0  0  0  0  0  0  0  0  0  0  0  0
   -0.7871    2.1428   -0.3091 H   0  0  0  0  0  0  0  0  0  0  0  0
  1  4  1  0  0  0  0
  1  5  1  0  0  0  0
  2  4  1  0  0  0  0
  3  4  2  0  0  0  0
  5  6  1  0  0  0  0
  5  7  1  0  0  0  0
  5  8  1  0  0  0  0
  6  9  1  0  0  0  0
  6 10  1  0  0  0  0
  6 11  1  0  0  0  0
  7 12  1  0  0  0  0
  7 13  1  0  0  0  0
  7 14  1  0  0  0  0
  8 15  1  0  0  0  0
  8 16  1  0  0  0  0
  8 17  1  0  0  0  0
M  CHG  2   2  -1   4   1
M  END
> <PUBCHEM_COMPOUND_CID>
164756

> <PUBCHEM_CONFORMER_RMSD>
0.4

> <PUBCHEM_CONFORMER_DIVERSEORDER>
1
3
2
4

> <PUBCHEM_MMFF94_PARTIAL_CHARGES>
5
1 -0.27
2 -0.52
3 -0.52
4 1.03
5 0.28

> <PUBCHEM_EFFECTIVE_ROTOR_COUNT>
2

> <PUBCHEM_PHARMACOPHORE_FEATURES>
3
1 2 acceptor
1 3 acceptor
4 5 6 7 8 hydrophobe

> <PUBCHEM_HEAVY_ATOM_COUNT>
8

> <PUBCHEM_ATOM_DEF_STEREO_COUNT>
0

> <PUBCHEM_ATOM_UDEF_STEREO_COUNT>
0

> <PUBCHEM_BOND_DEF_STEREO_COUNT>
0

> <PUBCHEM_BOND_UDEF_STEREO_COUNT>
0

> <PUBCHEM_ISOTOPIC_ATOM_COUNT>
0

> <PUBCHEM_COMPONENT_COUNT>
1

> <PUBCHEM_CACTVS_TAUTO_COUNT>
1

> <PUBCHEM_CONFORMER_ID>
0002839400000001

> <PUBCHEM_MMFF94_ENERGY>
32.8103

> <PUBCHEM_FEATURE_SELFOVERLAP>
15.293

> <PUBCHEM_SHAPE_FINGERPRINT>
15310529 11 17968949586832038614
16714656 1 18410013234427013823
18185500 45 18052811743542297239
20096714 4 17969770887288964253
21040471 1 17418382367542974299
24536 1 17274810381113309950
29004967 10 17895199964483773097
5084963 1 18201145564671378159
5943 1 14564820883906032671

> <PUBCHEM_SHAPE_MULTIPOLES>
142.05
2.57
1.28
0.98
0.47
0.01
0.06
0.03
-0.47
0.12
0.4
-0.41
-0.01
0

> <PUBCHEM_SHAPE_SELFOVERLAP>
262.863

> <PUBCHEM_SHAPE_VOLUME>
91.2

> <PUBCHEM_COORDINATE_TYPE>
2
5
10

$$$$
