357114
  -OEChem-08182111323D

 28 30  0     0  0  0  0  0  0999 V2000
    1.9744    0.9728    0.0020 N   0  0  0  0  0  0  0  0  0  0  0  0
    2.8645    0.1034    0.0000 N   0  3  0  0  0  0  0  0  0  0  0  0
    3.6858   -0.6880   -0.0020 N   0  5  0  0  0  0  0  0  0  0  0  0
    0.5975    0.4754    0.0015 C   0  0  0  0  0  0  0  0  0  0  0  0
   -1.0934   -0.9011    1.2596 C   0  0  0  0  0  0  0  0  0  0  0  0
   -1.8241    1.1629    0.0033 C   0  0  0  0  0  0  0  0  0  0  0  0
   -1.0945   -0.8939   -1.2641 C   0  0  0  0  0  0  0  0  0  0  0  0
    0.3563   -0.3844    1.2545 C   0  0  0  0  0  0  0  0  0  0  0  0
   -0.3714    1.6708    0.0036 C   0  0  0  0  0  0  0  0  0  0  0  0
    0.3548   -0.3763   -1.2566 C   0  0  0  0  0  0  0  0  0  0  0  0
   -2.0575    0.2988    1.2557 C   0  0  0  0  0  0  0  0  0  0  0  0
   -1.3331   -1.7457   -0.0046 C   0  0  0  0  0  0  0  0  0  0  0  0
   -2.0592    0.3054   -1.2530 C   0  0  0  0  0  0  0  0  0  0  0  0
   -1.2664   -1.5123    2.1524 H   0  0  0  0  0  0  0  0  0  0  0  0
   -2.5143    2.0138    0.0060 H   0  0  0  0  0  0  0  0  0  0  0  0
   -1.2675   -1.5001   -2.1602 H   0  0  0  0  0  0  0  0  0  0  0  0
    0.5479    0.2021    2.1626 H   0  0  0  0  0  0  0  0  0  0  0  0
    1.0388   -1.2428    1.2914 H   0  0  0  0  0  0  0  0  0  0  0  0
   -0.1957    2.3067   -0.8738 H   0  0  0  0  0  0  0  0  0  0  0  0
   -0.1953    2.3033    0.8834 H   0  0  0  0  0  0  0  0  0  0  0  0
    1.0375   -1.2343   -1.2997 H   0  0  0  0  0  0  0  0  0  0  0  0
    0.5456    0.2156   -2.1613 H   0  0  0  0  0  0  0  0  0  0  0  0
   -3.0955   -0.0554    1.2774 H   0  0  0  0  0  0  0  0  0  0  0  0
   -1.9077    0.9020    2.1596 H   0  0  0  0  0  0  0  0  0  0  0  0
   -0.6626   -2.6139   -0.0073 H   0  0  0  0  0  0  0  0  0  0  0  0
   -2.3585   -2.1353   -0.0052 H   0  0  0  0  0  0  0  0  0  0  0  0
   -3.0970   -0.0491   -1.2751 H   0  0  0  0  0  0  0  0  0  0  0  0
   -1.9109    0.9132   -2.1539 H   0  0  0  0  0  0  0  0  0  0  0  0
  1  2  2  0  0  0  0
  1  4  1  0  0  0  0
  2  3  2  0  0  0  0
  4  8  1  0  0  0  0
  4  9  1  0  0  0  0
  4 10  1  0  0  0  0
  5  8  1  0  0  0  0
  5 11  1  0  0  0  0
  5 12  1  0  0  0  0
  5 14  1  0  0  0  0
  6  9  1  0  0  0  0
  6 11  1  0  0  0  0
  6 13  1  0  0  0  0
  6 15  1  0  0  0  0
  7 10  1  0  0  0  0
  7 12  1  0  0  0  0
  7 13  1  0  0  0  0
  7 16  1  0  0  0  0
  8 17  1  0  0  0  0
  8 18  1  0  0  0  0
  9 19  1  0  0  0  0
  9 20  1  0  0  0  0
 10 21  1  0  0  0  0
 10 22  1  0  0  0  0
 11 23  1  0  0  0  0
 11 24  1  0  0  0  0
 12 25  1  0  0  0  0
 12 26  1  0  0  0  0
 13 27  1  0  0  0  0
 13 28  1  0  0  0  0
M  CHG  2   2   1   3  -1
M  END
> <PUBCHEM_COMPOUND_CID>
357114

> <PUBCHEM_CONFORMER_RMSD>
0.6

> <PUBCHEM_CONFORMER_DIVERSEORDER>
1

> <PUBCHEM_MMFF94_PARTIAL_CHARGES>
4
1 -0.56
2 0.69
3 -0.37
4 0.25

> <PUBCHEM_EFFECTIVE_ROTOR_COUNT>
2.2

> <PUBCHEM_PHARMACOPHORE_FEATURES>
4
6 4 5 6 8 9 11 rings
6 4 5 7 8 10 12 rings
6 4 6 7 9 10 13 rings
6 5 6 7 11 12 13 rings

> <PUBCHEM_HEAVY_ATOM_COUNT>
13

> <PUBCHEM_ATOM_DEF_STEREO_COUNT>
0

> <PUBCHEM_ATOM_UDEF_STEREO_COUNT>
0

> <PUBCHEM_BOND_DEF_STEREO_COUNT>
0

> <PUBCHEM_BOND_UDEF_STEREO_COUNT>
0

> <PUBCHEM_ISOTOPIC_ATOM_COUNT>
0

> <PUBCHEM_COMPONENT_COUNT>
1

> <PUBCHEM_CACTVS_TAUTO_COUNT>
1

> <PUBCHEM_CONFORMER_ID>
000572FA00000001

> <PUBCHEM_MMFF94_ENERGY>
28.439

> <PUBCHEM_FEATURE_SELFOVERLAP>
32.86

> <PUBCHEM_SHAPE_FINGERPRINT>
10702982 57 18262226721191458421
12423570 1 11527676352897522857
13024252 1 17312821584691166121
14817 1 11435562910991866627
15557651 10 17988076673892031249
16945 1 18410856533885959456
20525323 117 11600006552656924206
20653085 51 18410845568977092085
23402539 116 18272926094906829021
369184 2 18410576218687484376
5084963 1 17917699214972359821
528886 8 17988352672764249309
68250623 7 18049735306002871829

> <PUBCHEM_SHAPE_MULTIPOLES>
252.59
3.52
1.46
1.37
4.02
0.01
0
-0.16
0
-0.46
0
-0.65
-0.25
0

> <PUBCHEM_SHAPE_SELFOVERLAP>
548.668

> <PUBCHEM_SHAPE_VOLUME>
132.5

> <PUBCHEM_COORDINATE_TYPE>
2
5
10

$$$$
