577098
  -OEChem-08182111353D

 23 23  0     0  0  0  0  0  0999 V2000
    1.9760   -0.0670   -0.7117 N   0  0  0  0  0  0  0  0  0  0  0  0
    2.0042   -1.2364   -0.3237 N   0  3  0  0  0  0  0  0  0  0  0  0
    2.0504   -2.3252    0.0128 N   0  5  0  0  0  0  0  0  0  0  0  0
    1.0738    0.8267    0.0708 C   0  0  0  0  0  0  0  0  0  0  0  0
   -0.3464    0.3717    0.0382 C   0  0  0  0  0  0  0  0  0  0  0  0
    1.7294    0.8975    1.4788 C   0  0  0  0  0  0  0  0  0  0  0  0
    1.2122    2.2293   -0.5735 C   0  0  0  0  0  0  0  0  0  0  0  0
   -1.0006    0.0420    1.2252 C   0  0  0  0  0  0  0  0  0  0  0  0
   -1.0202    0.2756   -1.1792 C   0  0  0  0  0  0  0  0  0  0  0  0
   -2.3285   -0.3840    1.1948 C   0  0  0  0  0  0  0  0  0  0  0  0
   -2.3481   -0.1502   -1.2098 C   0  0  0  0  0  0  0  0  0  0  0  0
   -3.0022   -0.4800   -0.0227 C   0  0  0  0  0  0  0  0  0  0  0  0
    1.7129   -0.0629    2.0068 H   0  0  0  0  0  0  0  0  0  0  0  0
    1.2273    1.6388    2.1120 H   0  0  0  0  0  0  0  0  0  0  0  0
    2.7825    1.1973    1.4056 H   0  0  0  0  0  0  0  0  0  0  0  0
    0.9384    2.2276   -1.6345 H   0  0  0  0  0  0  0  0  0  0  0  0
    0.5773    2.9627   -0.0628 H   0  0  0  0  0  0  0  0  0  0  0  0
    2.2478    2.5864   -0.5213 H   0  0  0  0  0  0  0  0  0  0  0  0
   -0.5247    0.1017    2.1978 H   0  0  0  0  0  0  0  0  0  0  0  0
   -0.5282    0.5140   -2.1181 H   0  0  0  0  0  0  0  0  0  0  0  0
   -2.8387   -0.6405    2.1187 H   0  0  0  0  0  0  0  0  0  0  0  0
   -2.8720   -0.2281   -2.1580 H   0  0  0  0  0  0  0  0  0  0  0  0
   -4.0359   -0.8122   -0.0467 H   0  0  0  0  0  0  0  0  0  0  0  0
  1  2  2  0  0  0  0
  1  4  1  0  0  0  0
  2  3  2  0  0  0  0
  4  5  1  0  0  0  0
  4  6  1  0  0  0  0
  4  7  1  0  0  0  0
  5  8  2  0  0  0  0
  5  9  1  0  0  0  0
  6 13  1  0  0  0  0
  6 14  1  0  0  0  0
  6 15  1  0  0  0  0
  7 16  1  0  0  0  0
  7 17  1  0  0  0  0
  7 18  1  0  0  0  0
  8 10  1  0  0  0  0
  8 19  1  0  0  0  0
  9 11  2  0  0  0  0
  9 20  1  0  0  0  0
 10 12  2  0  0  0  0
 10 21  1  0  0  0  0
 11 12  1  0  0  0  0
 11 22  1  0  0  0  0
 12 23  1  0  0  0  0
M  CHG  2   2   1   3  -1
M  END
> <PUBCHEM_COMPOUND_CID>
577098

> <PUBCHEM_CONFORMER_RMSD>
0.6

> <PUBCHEM_CONFORMER_DIVERSEORDER>
1
5
7
2
8
6
3
4

> <PUBCHEM_MMFF94_PARTIAL_CHARGES>
15
1 -0.56
10 -0.15
11 -0.15
12 -0.15
19 0.15
2 0.69
20 0.15
21 0.15
22 0.15
23 0.15
3 -0.37
4 0.39
5 -0.14
8 -0.15
9 -0.15

> <PUBCHEM_EFFECTIVE_ROTOR_COUNT>
2

> <PUBCHEM_PHARMACOPHORE_FEATURES>
2
3 4 6 7 hydrophobe
6 5 8 9 10 11 12 rings

> <PUBCHEM_HEAVY_ATOM_COUNT>
12

> <PUBCHEM_ATOM_DEF_STEREO_COUNT>
0

> <PUBCHEM_ATOM_UDEF_STEREO_COUNT>
0

> <PUBCHEM_BOND_DEF_STEREO_COUNT>
0

> <PUBCHEM_BOND_UDEF_STEREO_COUNT>
0

> <PUBCHEM_ISOTOPIC_ATOM_COUNT>
0

> <PUBCHEM_COMPONENT_COUNT>
1

> <PUBCHEM_CACTVS_TAUTO_COUNT>
1

> <PUBCHEM_CONFORMER_ID>
0008CE4A00000001

> <PUBCHEM_MMFF94_ENERGY>
33.4752

> <PUBCHEM_FEATURE_SELFOVERLAP>
10.148

> <PUBCHEM_SHAPE_FINGERPRINT>
12326174 3 18187638163156065688
12423570 1 13947331717546821652
12524768 44 17749954491508296349
12932764 1 17703799158143376097
15775835 57 17346329240302819369
16945 1 18337954596691083293
19837323 101 14057873498324898604
20201158 50 18186240619215256426
20361792 2 18270404867214823078
20653091 64 17775565368466894216
20711985 344 17756133501974839144
22802520 49 17458631055840069351
23211744 41 17243860361326126113
23552423 10 18200876283133097221
29004967 10 18408882962043218097
3248919 1 18336258059161125905
369184 2 17489585692870499457
5084963 1 18131359638971205973
8030462 33 17774447199649098209
81228 2 17759800343347008584

> <PUBCHEM_SHAPE_MULTIPOLES>
232.01
3.87
1.67
1.37
1.59
0.42
0.27
0.8
-0.03
-1.74
-0.28
0.31
-0.15
0.3

> <PUBCHEM_SHAPE_SELFOVERLAP>
477.936

> <PUBCHEM_SHAPE_VOLUME>
134

> <PUBCHEM_COORDINATE_TYPE>
2
5
10

$$$$
